<additional>
    <tlLogic id="j_1" type="static" programID="1" offset="64.0">
        <phase duration="13" state="GGgGrrGrrGrr"/>
        <phase duration="2" state="GyyGrrGrrGrr"/>
        <phase duration="1" state="GrrGrrGrrGrr"/>
        <phase duration="17" state="GrrGGgGrrGrr"/>
        <phase duration="2" state="GrrGyyGrrGrr"/>
        <phase duration="1" state="GrrGrrGrrGrr"/>
        <phase duration="15" state="GrrGrrGGgGrr"/>
        <phase duration="2" state="GrrGrrGyyGrr"/>
        <phase duration="1" state="GrrGrrGrrGrr"/>
        <phase duration="15" state="GrrGrrGrrGGg"/>
        <phase duration="2" state="GrrGrrGrrGyy"/>
        <phase duration="1" state="GrrGrrGrrGrr"/>
    </tlLogic>
    <tlLogic id="j_2" type="static" programID="1" offset="20.0">
        <phase duration="12" state="GGgGrrGrrGrr"/>
        <phase duration="2" state="GyyGrrGrrGrr"/>
        <phase duration="1" state="GrrGrrGrrGrr"/>
        <phase duration="14" state="GrrGGgGrrGrr"/>
        <phase duration="2" state="GrrGyyGrrGrr"/>
        <phase duration="1" state="GrrGrrGrrGrr"/>
        <phase duration="18" state="GrrGrrGGgGrr"/>
        <phase duration="2" state="GrrGrrGyyGrr"/>
        <phase duration="1" state="GrrGrrGrrGrr"/>
        <phase duration="16" state="GrrGrrGrrGGg"/>
        <phase duration="2" state="GrrGrrGrrGyy"/>
        <phase duration="1" state="GrrGrrGrrGrr"/>
    </tlLogic>
    <tlLogic id="j_3" type="static" programID="1" offset="45.0">
        <phase duration="14" state="GGgGrrGrrGrr"/>
        <phase duration="2" state="GyyGrrGrrGrr"/>
        <phase duration="1" state="GrrGrrGrrGrr"/>
        <phase duration="17" state="GrrGGgGrrGrr"/>
        <phase duration="2" state="GrrGyyGrrGrr"/>
        <phase duration="1" state="GrrGrrGrrGrr"/>
        <phase duration="13" state="GrrGrrGGgGrr"/>
        <phase duration="2" state="GrrGrrGyyGrr"/>
        <phase duration="1" state="GrrGrrGrrGrr"/>
        <phase duration="16" state="GrrGrrGrrGGg"/>
        <phase duration="2" state="GrrGrrGrrGyy"/>
        <phase duration="1" state="GrrGrrGrrGrr"/>
    </tlLogic>
    <tlLogic id="j_4" type="static" programID="1" offset="37.0">
        <phase duration="13" state="GGgGrrGrrGrr"/>
        <phase duration="2" state="GyyGrrGrrGrr"/>
        <phase duration="1" state="GrrGrrGrrGrr"/>
        <phase duration="17" state="GrrGGgGrrGrr"/>
        <phase duration="2" state="GrrGyyGrrGrr"/>
        <phase duration="1" state="GrrGrrGrrGrr"/>
        <phase duration="15" state="GrrGrrGGgGrr"/>
        <phase duration="2" state="GrrGrrGyyGrr"/>
        <phase duration="1" state="GrrGrrGrrGrr"/>
        <phase duration="15" state="GrrGrrGrrGGg"/>
        <phase duration="2" state="GrrGrrGrrGyy"/>
        <phase duration="1" state="GrrGrrGrrGrr"/>
    </tlLogic>
    <tlLogic id="j_5" type="static" programID="1" offset="22.0">
        <phase duration="12" state="GGgGrrGrrGrr"/>
        <phase duration="2" state="GyyGrrGrrGrr"/>
        <phase duration="1" state="GrrGrrGrrGrr"/>
        <phase duration="14" state="GrrGGgGrrGrr"/>
        <phase duration="2" state="GrrGyyGrrGrr"/>
        <phase duration="1" state="GrrGrrGrrGrr"/>
        <phase duration="18" state="GrrGrrGGgGrr"/>
        <phase duration="2" state="GrrGrrGyyGrr"/>
        <phase duration="1" state="GrrGrrGrrGrr"/>
        <phase duration="16" state="GrrGrrGrrGGg"/>
        <phase duration="2" state="GrrGrrGrrGyy"/>
        <phase duration="1" state="GrrGrrGrrGrr"/>
    </tlLogic>
    <tlLogic id="j_6" type="static" programID="1" offset="50.0">
        <phase duration="14" state="GGgGrrGrrGrr"/>
        <phase duration="2" state="GyyGrrGrrGrr"/>
        <phase duration="1" state="GrrGrrGrrGrr"/>
        <phase duration="17" state="GrrGGgGrrGrr"/>
        <phase duration="2" state="GrrGyyGrrGrr"/>
        <phase duration="1" state="GrrGrrGrrGrr"/>
        <phase duration="13" state="GrrGrrGGgGrr"/>
        <phase duration="2" state="GrrGrrGyyGrr"/>
        <phase duration="1" state="GrrGrrGrrGrr"/>
        <phase duration="16" state="GrrGrrGrrGGg"/>
        <phase duration="2" state="GrrGrrGrrGyy"/>
        <phase duration="1" state="GrrGrrGrrGrr"/>
    </tlLogic>
    <tlLogic id="j_7" type="static" programID="1" offset="57.0">
        <phase duration="13" state="GGgGrrGrrGrr"/>
        <phase duration="2" state="GyyGrrGrrGrr"/>
        <phase duration="1" state="GrrGrrGrrGrr"/>
        <phase duration="17" state="GrrGGgGrrGrr"/>
        <phase duration="2" state="GrrGyyGrrGrr"/>
        <phase duration="1" state="GrrGrrGrrGrr"/>
        <phase duration="15" state="GrrGrrGGgGrr"/>
        <phase duration="2" state="GrrGrrGyyGrr"/>
        <phase duration="1" state="GrrGrrGrrGrr"/>
        <phase duration="15" state="GrrGrrGrrGGg"/>
        <phase duration="2" state="GrrGrrGrrGyy"/>
        <phase duration="1" state="GrrGrrGrrGrr"/>
    </tlLogic>
    <tlLogic id="j_8" type="static" programID="1" offset="23.0">
        <phase duration="12" state="GGgGrrGrrGrr"/>
        <phase duration="2" state="GyyGrrGrrGrr"/>
        <phase duration="1" state="GrrGrrGrrGrr"/>
        <phase duration="14" state="GrrGGgGrrGrr"/>
        <phase duration="2" state="GrrGyyGrrGrr"/>
        <phase duration="1" state="GrrGrrGrrGrr"/>
        <phase duration="18" state="GrrGrrGGgGrr"/>
        <phase duration="2" state="GrrGrrGyyGrr"/>
        <phase duration="1" state="GrrGrrGrrGrr"/>
        <phase duration="16" state="GrrGrrGrrGGg"/>
        <phase duration="2" state="GrrGrrGrrGyy"/>
        <phase duration="1" state="GrrGrrGrrGrr"/>
    </tlLogic>
    <tlLogic id="j_9" type="static" programID="1" offset="39.0">
        <phase duration="14" state="GGgGrrGrrGrr"/>
        <phase duration="2" state="GyyGrrGrrGrr"/>
        <phase duration="1" state="GrrGrrGrrGrr"/>
        <phase duration="17" state="GrrGGgGrrGrr"/>
        <phase duration="2" state="GrrGyyGrrGrr"/>
        <phase duration="1" state="GrrGrrGrrGrr"/>
        <phase duration="13" state="GrrGrrGGgGrr"/>
        <phase duration="2" state="GrrGrrGyyGrr"/>
        <phase duration="1" state="GrrGrrGrrGrr"/>
        <phase duration="16" state="GrrGrrGrrGGg"/>
        <phase duration="2" state="GrrGrrGrrGyy"/>
        <phase duration="1" state="GrrGrrGrrGrr"/>
    </tlLogic>
</additional>
