<?xml version="1.0" encoding="UTF-8"?>

<!-- generated on 2022-04-12 15:46:13 by Eclipse SUMO netedit Version 1.11.0
<configuration xmlns:xsi="http://www.w3.org/2001/XMLSchema-instance" xsi:noNamespaceSchemaLocation="http://sumo.dlr.de/xsd/netconvertConfiguration.xsd">

    <input>
        <sumo-net-file value=".\GridNetwork.net.xml"/>
    </input>

    <output>
        <output-file value=".\GridNetwork.net.xml"/>
    </output>

    <processing>
        <geometry.min-radius.fix.railways value="false"/>
        <geometry.max-grade.fix value="false"/>
        <offset.disable-normalization value="true"/>
        <lefthand value="false"/>
    </processing>

    <junctions>
        <no-turnarounds value="true"/>
        <junctions.corner-detail value="5"/>
        <junctions.limit-turn-speed value="5.5"/>
        <rectangular-lane-cut value="false"/>
    </junctions>

    <pedestrian>
        <walkingareas value="false"/>
    </pedestrian>

    <report>
        <aggregate-warnings value="5"/>
    </report>

</configuration>
-->

<net version="1.9" junctionCornerDetail="5" limitTurnSpeed="5.50" xmlns:xsi="http://www.w3.org/2001/XMLSchema-instance" xsi:noNamespaceSchemaLocation="http://sumo.dlr.de/xsd/net_file.xsd">

    <location netOffset="0.00,0.00" convBoundary="-500.00,-500.00,1500.00,1500.00" origBoundary="0.00,0.00,1000.00,1000.00" projParameter="!"/>

    <edge id=":j_1_0" function="internal">
        <lane id=":j_1_0_0" index="0" speed="6.51" length="9.03" shape="-8.00,1013.60 -8.35,1011.15 -9.40,1009.40 -11.15,1008.35 -13.60,1008.00"/>
    </edge>
    <edge id=":j_1_1" function="internal">
        <lane id=":j_1_1_0" index="0" speed="13.89" length="27.20" shape="-4.80,1013.60 -4.80,986.40"/>
    </edge>
    <edge id=":j_1_2" function="internal">
        <lane id=":j_1_2_0" index="0" speed="10.36" length="13.42" shape="-1.60,1013.60 -0.65,1006.95 2.20,1002.20 3.20,1001.60"/>
    </edge>
    <edge id=":j_1_12" function="internal">
        <lane id=":j_1_12_0" index="0" speed="10.36" length="11.09" shape="3.20,1001.60 6.95,999.35 13.60,998.40"/>
    </edge>
    <edge id=":j_1_3" function="internal">
        <lane id=":j_1_3_0" index="0" speed="6.51" length="9.03" shape="13.60,1008.00 11.15,1008.35 9.40,1009.40 8.35,1011.15 8.00,1013.60"/>
    </edge>
    <edge id=":j_1_4" function="internal">
        <lane id=":j_1_4_0" index="0" speed="13.89" length="27.20" shape="13.60,1004.80 -13.60,1004.80"/>
    </edge>
    <edge id=":j_1_5" function="internal">
        <lane id=":j_1_5_0" index="0" speed="10.36" length="13.42" shape="13.60,1001.60 6.95,1000.65 2.20,997.80 1.60,996.80"/>
    </edge>
    <edge id=":j_1_13" function="internal">
        <lane id=":j_1_13_0" index="0" speed="10.36" length="11.09" shape="1.60,996.80 -0.65,993.05 -1.60,986.40"/>
    </edge>
    <edge id=":j_1_6" function="internal">
        <lane id=":j_1_6_0" index="0" speed="6.51" length="9.03" shape="8.00,986.40 8.35,988.85 9.40,990.60 11.15,991.65 13.60,992.00"/>
    </edge>
    <edge id=":j_1_7" function="internal">
        <lane id=":j_1_7_0" index="0" speed="13.89" length="27.20" shape="4.80,986.40 4.80,1013.60"/>
    </edge>
    <edge id=":j_1_8" function="internal">
        <lane id=":j_1_8_0" index="0" speed="10.36" length="13.42" shape="1.60,986.40 0.65,993.05 -2.20,997.80 -3.20,998.40"/>
    </edge>
    <edge id=":j_1_14" function="internal">
        <lane id=":j_1_14_0" index="0" speed="10.36" length="11.09" shape="-3.20,998.40 -6.95,1000.65 -13.60,1001.60"/>
    </edge>
    <edge id=":j_1_9" function="internal">
        <lane id=":j_1_9_0" index="0" speed="6.51" length="9.03" shape="-13.60,992.00 -11.15,991.65 -9.40,990.60 -8.35,988.85 -8.00,986.40"/>
    </edge>
    <edge id=":j_1_10" function="internal">
        <lane id=":j_1_10_0" index="0" speed="13.89" length="27.20" shape="-13.60,995.20 13.60,995.20"/>
    </edge>
    <edge id=":j_1_11" function="internal">
        <lane id=":j_1_11_0" index="0" speed="10.36" length="13.42" shape="-13.60,998.40 -6.95,999.35 -2.20,1002.20 -1.60,1003.20"/>
    </edge>
    <edge id=":j_1_15" function="internal">
        <lane id=":j_1_15_0" index="0" speed="10.36" length="11.09" shape="-1.60,1003.20 0.65,1006.95 1.60,1013.60"/>
    </edge>
    <edge id=":j_2_0" function="internal">
        <lane id=":j_2_0_0" index="0" speed="6.51" length="9.03" shape="492.00,1013.60 491.65,1011.15 490.60,1009.40 488.85,1008.35 486.40,1008.00"/>
    </edge>
    <edge id=":j_2_1" function="internal">
        <lane id=":j_2_1_0" index="0" speed="13.89" length="27.20" shape="495.20,1013.60 495.20,986.40"/>
    </edge>
    <edge id=":j_2_2" function="internal">
        <lane id=":j_2_2_0" index="0" speed="10.36" length="13.42" shape="498.40,1013.60 499.35,1006.95 502.20,1002.20 503.20,1001.60"/>
    </edge>
    <edge id=":j_2_12" function="internal">
        <lane id=":j_2_12_0" index="0" speed="10.36" length="11.09" shape="503.20,1001.60 506.95,999.35 513.60,998.40"/>
    </edge>
    <edge id=":j_2_3" function="internal">
        <lane id=":j_2_3_0" index="0" speed="6.51" length="9.03" shape="513.60,1008.00 511.15,1008.35 509.40,1009.40 508.35,1011.15 508.00,1013.60"/>
    </edge>
    <edge id=":j_2_4" function="internal">
        <lane id=":j_2_4_0" index="0" speed="13.89" length="27.20" shape="513.60,1004.80 486.40,1004.80"/>
    </edge>
    <edge id=":j_2_5" function="internal">
        <lane id=":j_2_5_0" index="0" speed="10.36" length="13.42" shape="513.60,1001.60 506.95,1000.65 502.20,997.80 501.60,996.80"/>
    </edge>
    <edge id=":j_2_13" function="internal">
        <lane id=":j_2_13_0" index="0" speed="10.36" length="11.09" shape="501.60,996.80 499.35,993.05 498.40,986.40"/>
    </edge>
    <edge id=":j_2_6" function="internal">
        <lane id=":j_2_6_0" index="0" speed="6.51" length="9.03" shape="508.00,986.40 508.35,988.85 509.40,990.60 511.15,991.65 513.60,992.00"/>
    </edge>
    <edge id=":j_2_7" function="internal">
        <lane id=":j_2_7_0" index="0" speed="13.89" length="27.20" shape="504.80,986.40 504.80,1013.60"/>
    </edge>
    <edge id=":j_2_8" function="internal">
        <lane id=":j_2_8_0" index="0" speed="10.36" length="13.42" shape="501.60,986.40 500.65,993.05 497.80,997.80 496.80,998.40"/>
    </edge>
    <edge id=":j_2_14" function="internal">
        <lane id=":j_2_14_0" index="0" speed="10.36" length="11.09" shape="496.80,998.40 493.05,1000.65 486.40,1001.60"/>
    </edge>
    <edge id=":j_2_9" function="internal">
        <lane id=":j_2_9_0" index="0" speed="6.51" length="9.03" shape="486.40,992.00 488.85,991.65 490.60,990.60 491.65,988.85 492.00,986.40"/>
    </edge>
    <edge id=":j_2_10" function="internal">
        <lane id=":j_2_10_0" index="0" speed="13.89" length="27.20" shape="486.40,995.20 513.60,995.20"/>
    </edge>
    <edge id=":j_2_11" function="internal">
        <lane id=":j_2_11_0" index="0" speed="10.36" length="13.42" shape="486.40,998.40 493.05,999.35 497.80,1002.20 498.40,1003.20"/>
    </edge>
    <edge id=":j_2_15" function="internal">
        <lane id=":j_2_15_0" index="0" speed="10.36" length="11.09" shape="498.40,1003.20 500.65,1006.95 501.60,1013.60"/>
    </edge>
    <edge id=":j_3_0" function="internal">
        <lane id=":j_3_0_0" index="0" speed="6.51" length="9.03" shape="992.00,1013.60 991.65,1011.15 990.60,1009.40 988.85,1008.35 986.40,1008.00"/>
    </edge>
    <edge id=":j_3_1" function="internal">
        <lane id=":j_3_1_0" index="0" speed="13.89" length="27.20" shape="995.20,1013.60 995.20,986.40"/>
    </edge>
    <edge id=":j_3_2" function="internal">
        <lane id=":j_3_2_0" index="0" speed="10.36" length="13.42" shape="998.40,1013.60 999.35,1006.95 1002.20,1002.20 1003.20,1001.60"/>
    </edge>
    <edge id=":j_3_12" function="internal">
        <lane id=":j_3_12_0" index="0" speed="10.36" length="11.09" shape="1003.20,1001.60 1006.95,999.35 1013.60,998.40"/>
    </edge>
    <edge id=":j_3_3" function="internal">
        <lane id=":j_3_3_0" index="0" speed="6.51" length="9.03" shape="1013.60,1008.00 1011.15,1008.35 1009.40,1009.40 1008.35,1011.15 1008.00,1013.60"/>
    </edge>
    <edge id=":j_3_4" function="internal">
        <lane id=":j_3_4_0" index="0" speed="13.89" length="27.20" shape="1013.60,1004.80 986.40,1004.80"/>
    </edge>
    <edge id=":j_3_5" function="internal">
        <lane id=":j_3_5_0" index="0" speed="10.36" length="13.42" shape="1013.60,1001.60 1006.95,1000.65 1002.20,997.80 1001.60,996.80"/>
    </edge>
    <edge id=":j_3_13" function="internal">
        <lane id=":j_3_13_0" index="0" speed="10.36" length="11.09" shape="1001.60,996.80 999.35,993.05 998.40,986.40"/>
    </edge>
    <edge id=":j_3_6" function="internal">
        <lane id=":j_3_6_0" index="0" speed="6.51" length="9.03" shape="1008.00,986.40 1008.35,988.85 1009.40,990.60 1011.15,991.65 1013.60,992.00"/>
    </edge>
    <edge id=":j_3_7" function="internal">
        <lane id=":j_3_7_0" index="0" speed="13.89" length="27.20" shape="1004.80,986.40 1004.80,1013.60"/>
    </edge>
    <edge id=":j_3_8" function="internal">
        <lane id=":j_3_8_0" index="0" speed="10.36" length="13.42" shape="1001.60,986.40 1000.65,993.05 997.80,997.80 996.80,998.40"/>
    </edge>
    <edge id=":j_3_14" function="internal">
        <lane id=":j_3_14_0" index="0" speed="10.36" length="11.09" shape="996.80,998.40 993.05,1000.65 986.40,1001.60"/>
    </edge>
    <edge id=":j_3_9" function="internal">
        <lane id=":j_3_9_0" index="0" speed="6.51" length="9.03" shape="986.40,992.00 988.85,991.65 990.60,990.60 991.65,988.85 992.00,986.40"/>
    </edge>
    <edge id=":j_3_10" function="internal">
        <lane id=":j_3_10_0" index="0" speed="13.89" length="27.20" shape="986.40,995.20 1013.60,995.20"/>
    </edge>
    <edge id=":j_3_11" function="internal">
        <lane id=":j_3_11_0" index="0" speed="10.36" length="13.42" shape="986.40,998.40 993.05,999.35 997.80,1002.20 998.40,1003.20"/>
    </edge>
    <edge id=":j_3_15" function="internal">
        <lane id=":j_3_15_0" index="0" speed="10.36" length="11.09" shape="998.40,1003.20 1000.65,1006.95 1001.60,1013.60"/>
    </edge>
    <edge id=":j_4_0" function="internal">
        <lane id=":j_4_0_0" index="0" speed="6.51" length="9.03" shape="-8.00,513.60 -8.35,511.15 -9.40,509.40 -11.15,508.35 -13.60,508.00"/>
    </edge>
    <edge id=":j_4_1" function="internal">
        <lane id=":j_4_1_0" index="0" speed="13.89" length="27.20" shape="-4.80,513.60 -4.80,486.40"/>
    </edge>
    <edge id=":j_4_2" function="internal">
        <lane id=":j_4_2_0" index="0" speed="10.36" length="13.42" shape="-1.60,513.60 -0.65,506.95 2.20,502.20 3.20,501.60"/>
    </edge>
    <edge id=":j_4_12" function="internal">
        <lane id=":j_4_12_0" index="0" speed="10.36" length="11.09" shape="3.20,501.60 6.95,499.35 13.60,498.40"/>
    </edge>
    <edge id=":j_4_3" function="internal">
        <lane id=":j_4_3_0" index="0" speed="6.51" length="9.03" shape="13.60,508.00 11.15,508.35 9.40,509.40 8.35,511.15 8.00,513.60"/>
    </edge>
    <edge id=":j_4_4" function="internal">
        <lane id=":j_4_4_0" index="0" speed="13.89" length="27.20" shape="13.60,504.80 -13.60,504.80"/>
    </edge>
    <edge id=":j_4_5" function="internal">
        <lane id=":j_4_5_0" index="0" speed="10.36" length="13.42" shape="13.60,501.60 6.95,500.65 2.20,497.80 1.60,496.80"/>
    </edge>
    <edge id=":j_4_13" function="internal">
        <lane id=":j_4_13_0" index="0" speed="10.36" length="11.09" shape="1.60,496.80 -0.65,493.05 -1.60,486.40"/>
    </edge>
    <edge id=":j_4_6" function="internal">
        <lane id=":j_4_6_0" index="0" speed="6.51" length="9.03" shape="8.00,486.40 8.35,488.85 9.40,490.60 11.15,491.65 13.60,492.00"/>
    </edge>
    <edge id=":j_4_7" function="internal">
        <lane id=":j_4_7_0" index="0" speed="13.89" length="27.20" shape="4.80,486.40 4.80,513.60"/>
    </edge>
    <edge id=":j_4_8" function="internal">
        <lane id=":j_4_8_0" index="0" speed="10.36" length="13.42" shape="1.60,486.40 0.65,493.05 -2.20,497.80 -3.20,498.40"/>
    </edge>
    <edge id=":j_4_14" function="internal">
        <lane id=":j_4_14_0" index="0" speed="10.36" length="11.09" shape="-3.20,498.40 -6.95,500.65 -13.60,501.60"/>
    </edge>
    <edge id=":j_4_9" function="internal">
        <lane id=":j_4_9_0" index="0" speed="6.51" length="9.03" shape="-13.60,492.00 -11.15,491.65 -9.40,490.60 -8.35,488.85 -8.00,486.40"/>
    </edge>
    <edge id=":j_4_10" function="internal">
        <lane id=":j_4_10_0" index="0" speed="13.89" length="27.20" shape="-13.60,495.20 13.60,495.20"/>
    </edge>
    <edge id=":j_4_11" function="internal">
        <lane id=":j_4_11_0" index="0" speed="10.36" length="13.42" shape="-13.60,498.40 -6.95,499.35 -2.20,502.20 -1.60,503.20"/>
    </edge>
    <edge id=":j_4_15" function="internal">
        <lane id=":j_4_15_0" index="0" speed="10.36" length="11.09" shape="-1.60,503.20 0.65,506.95 1.60,513.60"/>
    </edge>
    <edge id=":j_5_0" function="internal">
        <lane id=":j_5_0_0" index="0" speed="6.51" length="9.03" shape="492.00,513.60 491.65,511.15 490.60,509.40 488.85,508.35 486.40,508.00"/>
    </edge>
    <edge id=":j_5_1" function="internal">
        <lane id=":j_5_1_0" index="0" speed="13.89" length="27.20" shape="495.20,513.60 495.20,486.40"/>
    </edge>
    <edge id=":j_5_2" function="internal">
        <lane id=":j_5_2_0" index="0" speed="10.36" length="13.42" shape="498.40,513.60 499.35,506.95 502.20,502.20 503.20,501.60"/>
    </edge>
    <edge id=":j_5_12" function="internal">
        <lane id=":j_5_12_0" index="0" speed="10.36" length="11.09" shape="503.20,501.60 506.95,499.35 513.60,498.40"/>
    </edge>
    <edge id=":j_5_3" function="internal">
        <lane id=":j_5_3_0" index="0" speed="6.51" length="9.03" shape="513.60,508.00 511.15,508.35 509.40,509.40 508.35,511.15 508.00,513.60"/>
    </edge>
    <edge id=":j_5_4" function="internal">
        <lane id=":j_5_4_0" index="0" speed="13.89" length="27.20" shape="513.60,504.80 486.40,504.80"/>
    </edge>
    <edge id=":j_5_5" function="internal">
        <lane id=":j_5_5_0" index="0" speed="10.36" length="13.42" shape="513.60,501.60 506.95,500.65 502.20,497.80 501.60,496.80"/>
    </edge>
    <edge id=":j_5_13" function="internal">
        <lane id=":j_5_13_0" index="0" speed="10.36" length="11.09" shape="501.60,496.80 499.35,493.05 498.40,486.40"/>
    </edge>
    <edge id=":j_5_6" function="internal">
        <lane id=":j_5_6_0" index="0" speed="6.51" length="9.03" shape="508.00,486.40 508.35,488.85 509.40,490.60 511.15,491.65 513.60,492.00"/>
    </edge>
    <edge id=":j_5_7" function="internal">
        <lane id=":j_5_7_0" index="0" speed="13.89" length="27.20" shape="504.80,486.40 504.80,513.60"/>
    </edge>
    <edge id=":j_5_8" function="internal">
        <lane id=":j_5_8_0" index="0" speed="10.36" length="13.42" shape="501.60,486.40 500.65,493.05 497.80,497.80 496.80,498.40"/>
    </edge>
    <edge id=":j_5_14" function="internal">
        <lane id=":j_5_14_0" index="0" speed="10.36" length="11.09" shape="496.80,498.40 493.05,500.65 486.40,501.60"/>
    </edge>
    <edge id=":j_5_9" function="internal">
        <lane id=":j_5_9_0" index="0" speed="6.51" length="9.03" shape="486.40,492.00 488.85,491.65 490.60,490.60 491.65,488.85 492.00,486.40"/>
    </edge>
    <edge id=":j_5_10" function="internal">
        <lane id=":j_5_10_0" index="0" speed="13.89" length="27.20" shape="486.40,495.20 513.60,495.20"/>
    </edge>
    <edge id=":j_5_11" function="internal">
        <lane id=":j_5_11_0" index="0" speed="10.36" length="13.42" shape="486.40,498.40 493.05,499.35 497.80,502.20 498.40,503.20"/>
    </edge>
    <edge id=":j_5_15" function="internal">
        <lane id=":j_5_15_0" index="0" speed="10.36" length="11.09" shape="498.40,503.20 500.65,506.95 501.60,513.60"/>
    </edge>
    <edge id=":j_6_0" function="internal">
        <lane id=":j_6_0_0" index="0" speed="6.51" length="9.03" shape="992.00,513.60 991.65,511.15 990.60,509.40 988.85,508.35 986.40,508.00"/>
    </edge>
    <edge id=":j_6_1" function="internal">
        <lane id=":j_6_1_0" index="0" speed="13.89" length="27.20" shape="995.20,513.60 995.20,486.40"/>
    </edge>
    <edge id=":j_6_2" function="internal">
        <lane id=":j_6_2_0" index="0" speed="10.36" length="13.42" shape="998.40,513.60 999.35,506.95 1002.20,502.20 1003.20,501.60"/>
    </edge>
    <edge id=":j_6_12" function="internal">
        <lane id=":j_6_12_0" index="0" speed="10.36" length="11.09" shape="1003.20,501.60 1006.95,499.35 1013.60,498.40"/>
    </edge>
    <edge id=":j_6_3" function="internal">
        <lane id=":j_6_3_0" index="0" speed="6.51" length="9.03" shape="1013.60,508.00 1011.15,508.35 1009.40,509.40 1008.35,511.15 1008.00,513.60"/>
    </edge>
    <edge id=":j_6_4" function="internal">
        <lane id=":j_6_4_0" index="0" speed="13.89" length="27.20" shape="1013.60,504.80 986.40,504.80"/>
    </edge>
    <edge id=":j_6_5" function="internal">
        <lane id=":j_6_5_0" index="0" speed="10.36" length="13.42" shape="1013.60,501.60 1006.95,500.65 1002.20,497.80 1001.60,496.80"/>
    </edge>
    <edge id=":j_6_13" function="internal">
        <lane id=":j_6_13_0" index="0" speed="10.36" length="11.09" shape="1001.60,496.80 999.35,493.05 998.40,486.40"/>
    </edge>
    <edge id=":j_6_6" function="internal">
        <lane id=":j_6_6_0" index="0" speed="6.51" length="9.03" shape="1008.00,486.40 1008.35,488.85 1009.40,490.60 1011.15,491.65 1013.60,492.00"/>
    </edge>
    <edge id=":j_6_7" function="internal">
        <lane id=":j_6_7_0" index="0" speed="13.89" length="27.20" shape="1004.80,486.40 1004.80,513.60"/>
    </edge>
    <edge id=":j_6_8" function="internal">
        <lane id=":j_6_8_0" index="0" speed="10.36" length="13.42" shape="1001.60,486.40 1000.65,493.05 997.80,497.80 996.80,498.40"/>
    </edge>
    <edge id=":j_6_14" function="internal">
        <lane id=":j_6_14_0" index="0" speed="10.36" length="11.09" shape="996.80,498.40 993.05,500.65 986.40,501.60"/>
    </edge>
    <edge id=":j_6_9" function="internal">
        <lane id=":j_6_9_0" index="0" speed="6.51" length="9.03" shape="986.40,492.00 988.85,491.65 990.60,490.60 991.65,488.85 992.00,486.40"/>
    </edge>
    <edge id=":j_6_10" function="internal">
        <lane id=":j_6_10_0" index="0" speed="13.89" length="27.20" shape="986.40,495.20 1013.60,495.20"/>
    </edge>
    <edge id=":j_6_11" function="internal">
        <lane id=":j_6_11_0" index="0" speed="10.36" length="13.42" shape="986.40,498.40 993.05,499.35 997.80,502.20 998.40,503.20"/>
    </edge>
    <edge id=":j_6_15" function="internal">
        <lane id=":j_6_15_0" index="0" speed="10.36" length="11.09" shape="998.40,503.20 1000.65,506.95 1001.60,513.60"/>
    </edge>
    <edge id=":j_7_0" function="internal">
        <lane id=":j_7_0_0" index="0" speed="6.51" length="9.03" shape="-8.00,13.60 -8.35,11.15 -9.40,9.40 -11.15,8.35 -13.60,8.00"/>
    </edge>
    <edge id=":j_7_1" function="internal">
        <lane id=":j_7_1_0" index="0" speed="13.89" length="27.20" shape="-4.80,13.60 -4.80,-13.60"/>
    </edge>
    <edge id=":j_7_2" function="internal">
        <lane id=":j_7_2_0" index="0" speed="10.36" length="13.42" shape="-1.60,13.60 -0.65,6.95 2.20,2.20 3.20,1.60"/>
    </edge>
    <edge id=":j_7_12" function="internal">
        <lane id=":j_7_12_0" index="0" speed="10.36" length="11.09" shape="3.20,1.60 6.95,-0.65 13.60,-1.60"/>
    </edge>
    <edge id=":j_7_3" function="internal">
        <lane id=":j_7_3_0" index="0" speed="6.51" length="9.03" shape="13.60,8.00 11.15,8.35 9.40,9.40 8.35,11.15 8.00,13.60"/>
    </edge>
    <edge id=":j_7_4" function="internal">
        <lane id=":j_7_4_0" index="0" speed="13.89" length="27.20" shape="13.60,4.80 -13.60,4.80"/>
    </edge>
    <edge id=":j_7_5" function="internal">
        <lane id=":j_7_5_0" index="0" speed="10.36" length="13.42" shape="13.60,1.60 6.95,0.65 2.20,-2.20 1.60,-3.20"/>
    </edge>
    <edge id=":j_7_13" function="internal">
        <lane id=":j_7_13_0" index="0" speed="10.36" length="11.09" shape="1.60,-3.20 -0.65,-6.95 -1.60,-13.60"/>
    </edge>
    <edge id=":j_7_6" function="internal">
        <lane id=":j_7_6_0" index="0" speed="6.51" length="9.03" shape="8.00,-13.60 8.35,-11.15 9.40,-9.40 11.15,-8.35 13.60,-8.00"/>
    </edge>
    <edge id=":j_7_7" function="internal">
        <lane id=":j_7_7_0" index="0" speed="13.89" length="27.20" shape="4.80,-13.60 4.80,13.60"/>
    </edge>
    <edge id=":j_7_8" function="internal">
        <lane id=":j_7_8_0" index="0" speed="10.36" length="13.42" shape="1.60,-13.60 0.65,-6.95 -2.20,-2.20 -3.20,-1.60"/>
    </edge>
    <edge id=":j_7_14" function="internal">
        <lane id=":j_7_14_0" index="0" speed="10.36" length="11.09" shape="-3.20,-1.60 -6.95,0.65 -13.60,1.60"/>
    </edge>
    <edge id=":j_7_9" function="internal">
        <lane id=":j_7_9_0" index="0" speed="6.51" length="9.03" shape="-13.60,-8.00 -11.15,-8.35 -9.40,-9.40 -8.35,-11.15 -8.00,-13.60"/>
    </edge>
    <edge id=":j_7_10" function="internal">
        <lane id=":j_7_10_0" index="0" speed="13.89" length="27.20" shape="-13.60,-4.80 13.60,-4.80"/>
    </edge>
    <edge id=":j_7_11" function="internal">
        <lane id=":j_7_11_0" index="0" speed="10.36" length="13.42" shape="-13.60,-1.60 -6.95,-0.65 -2.20,2.20 -1.60,3.20"/>
    </edge>
    <edge id=":j_7_15" function="internal">
        <lane id=":j_7_15_0" index="0" speed="10.36" length="11.09" shape="-1.60,3.20 0.65,6.95 1.60,13.60"/>
    </edge>
    <edge id=":j_8_0" function="internal">
        <lane id=":j_8_0_0" index="0" speed="6.51" length="9.03" shape="492.00,13.60 491.65,11.15 490.60,9.40 488.85,8.35 486.40,8.00"/>
    </edge>
    <edge id=":j_8_1" function="internal">
        <lane id=":j_8_1_0" index="0" speed="13.89" length="27.20" shape="495.20,13.60 495.20,-13.60"/>
    </edge>
    <edge id=":j_8_2" function="internal">
        <lane id=":j_8_2_0" index="0" speed="10.36" length="13.42" shape="498.40,13.60 499.35,6.95 502.20,2.20 503.20,1.60"/>
    </edge>
    <edge id=":j_8_12" function="internal">
        <lane id=":j_8_12_0" index="0" speed="10.36" length="11.09" shape="503.20,1.60 506.95,-0.65 513.60,-1.60"/>
    </edge>
    <edge id=":j_8_3" function="internal">
        <lane id=":j_8_3_0" index="0" speed="6.51" length="9.03" shape="513.60,8.00 511.15,8.35 509.40,9.40 508.35,11.15 508.00,13.60"/>
    </edge>
    <edge id=":j_8_4" function="internal">
        <lane id=":j_8_4_0" index="0" speed="13.89" length="27.20" shape="513.60,4.80 486.40,4.80"/>
    </edge>
    <edge id=":j_8_5" function="internal">
        <lane id=":j_8_5_0" index="0" speed="10.36" length="13.42" shape="513.60,1.60 506.95,0.65 502.20,-2.20 501.60,-3.20"/>
    </edge>
    <edge id=":j_8_13" function="internal">
        <lane id=":j_8_13_0" index="0" speed="10.36" length="11.09" shape="501.60,-3.20 499.35,-6.95 498.40,-13.60"/>
    </edge>
    <edge id=":j_8_6" function="internal">
        <lane id=":j_8_6_0" index="0" speed="6.51" length="9.03" shape="508.00,-13.60 508.35,-11.15 509.40,-9.40 511.15,-8.35 513.60,-8.00"/>
    </edge>
    <edge id=":j_8_7" function="internal">
        <lane id=":j_8_7_0" index="0" speed="13.89" length="27.20" shape="504.80,-13.60 504.80,13.60"/>
    </edge>
    <edge id=":j_8_8" function="internal">
        <lane id=":j_8_8_0" index="0" speed="10.36" length="13.42" shape="501.60,-13.60 500.65,-6.95 497.80,-2.20 496.80,-1.60"/>
    </edge>
    <edge id=":j_8_14" function="internal">
        <lane id=":j_8_14_0" index="0" speed="10.36" length="11.09" shape="496.80,-1.60 493.05,0.65 486.40,1.60"/>
    </edge>
    <edge id=":j_8_9" function="internal">
        <lane id=":j_8_9_0" index="0" speed="6.51" length="9.03" shape="486.40,-8.00 488.85,-8.35 490.60,-9.40 491.65,-11.15 492.00,-13.60"/>
    </edge>
    <edge id=":j_8_10" function="internal">
        <lane id=":j_8_10_0" index="0" speed="13.89" length="27.20" shape="486.40,-4.80 513.60,-4.80"/>
    </edge>
    <edge id=":j_8_11" function="internal">
        <lane id=":j_8_11_0" index="0" speed="10.36" length="13.42" shape="486.40,-1.60 493.05,-0.65 497.80,2.20 498.40,3.20"/>
    </edge>
    <edge id=":j_8_15" function="internal">
        <lane id=":j_8_15_0" index="0" speed="10.36" length="11.09" shape="498.40,3.20 500.65,6.95 501.60,13.60"/>
    </edge>
    <edge id=":j_9_0" function="internal">
        <lane id=":j_9_0_0" index="0" speed="6.51" length="9.03" shape="992.00,13.60 991.65,11.15 990.60,9.40 988.85,8.35 986.40,8.00"/>
    </edge>
    <edge id=":j_9_1" function="internal">
        <lane id=":j_9_1_0" index="0" speed="13.89" length="27.20" shape="995.20,13.60 995.20,-13.60"/>
    </edge>
    <edge id=":j_9_2" function="internal">
        <lane id=":j_9_2_0" index="0" speed="10.36" length="13.42" shape="998.40,13.60 999.35,6.95 1002.20,2.20 1003.20,1.60"/>
    </edge>
    <edge id=":j_9_12" function="internal">
        <lane id=":j_9_12_0" index="0" speed="10.36" length="11.09" shape="1003.20,1.60 1006.95,-0.65 1013.60,-1.60"/>
    </edge>
    <edge id=":j_9_3" function="internal">
        <lane id=":j_9_3_0" index="0" speed="6.51" length="9.03" shape="1013.60,8.00 1011.15,8.35 1009.40,9.40 1008.35,11.15 1008.00,13.60"/>
    </edge>
    <edge id=":j_9_4" function="internal">
        <lane id=":j_9_4_0" index="0" speed="13.89" length="27.20" shape="1013.60,4.80 986.40,4.80"/>
    </edge>
    <edge id=":j_9_5" function="internal">
        <lane id=":j_9_5_0" index="0" speed="10.36" length="13.42" shape="1013.60,1.60 1006.95,0.65 1002.20,-2.20 1001.60,-3.20"/>
    </edge>
    <edge id=":j_9_13" function="internal">
        <lane id=":j_9_13_0" index="0" speed="10.36" length="11.09" shape="1001.60,-3.20 999.35,-6.95 998.40,-13.60"/>
    </edge>
    <edge id=":j_9_6" function="internal">
        <lane id=":j_9_6_0" index="0" speed="6.51" length="9.03" shape="1008.00,-13.60 1008.35,-11.15 1009.40,-9.40 1011.15,-8.35 1013.60,-8.00"/>
    </edge>
    <edge id=":j_9_7" function="internal">
        <lane id=":j_9_7_0" index="0" speed="13.89" length="27.20" shape="1004.80,-13.60 1004.80,13.60"/>
    </edge>
    <edge id=":j_9_8" function="internal">
        <lane id=":j_9_8_0" index="0" speed="10.36" length="13.42" shape="1001.60,-13.60 1000.65,-6.95 997.80,-2.20 996.80,-1.60"/>
    </edge>
    <edge id=":j_9_14" function="internal">
        <lane id=":j_9_14_0" index="0" speed="10.36" length="11.09" shape="996.80,-1.60 993.05,0.65 986.40,1.60"/>
    </edge>
    <edge id=":j_9_9" function="internal">
        <lane id=":j_9_9_0" index="0" speed="6.51" length="9.03" shape="986.40,-8.00 988.85,-8.35 990.60,-9.40 991.65,-11.15 992.00,-13.60"/>
    </edge>
    <edge id=":j_9_10" function="internal">
        <lane id=":j_9_10_0" index="0" speed="13.89" length="27.20" shape="986.40,-4.80 1013.60,-4.80"/>
    </edge>
    <edge id=":j_9_11" function="internal">
        <lane id=":j_9_11_0" index="0" speed="10.36" length="13.42" shape="986.40,-1.60 993.05,-0.65 997.80,2.20 998.40,3.20"/>
    </edge>
    <edge id=":j_9_15" function="internal">
        <lane id=":j_9_15_0" index="0" speed="10.36" length="11.09" shape="998.40,3.20 1000.65,6.95 1001.60,13.60"/>
    </edge>

    <edge id="z_1" from="j_01" to="j_1" priority="-1">
        <lane id="z_1_0" index="0" speed="13.89" length="486.40" shape="-8.00,1500.00 -8.00,1013.60"/>
        <lane id="z_1_1" index="1" speed="13.89" length="486.40" shape="-4.80,1500.00 -4.80,1013.60"/>
        <lane id="z_1_2" index="2" speed="13.89" length="486.40" shape="-1.60,1500.00 -1.60,1013.60"/>
    </edge>
    <edge id="z_10" from="j_3" to="j_6" priority="-1">
        <lane id="z_10_0" index="0" speed="13.89" length="472.80" shape="992.00,986.40 992.00,513.60"/>
        <lane id="z_10_1" index="1" speed="13.89" length="472.80" shape="995.20,986.40 995.20,513.60"/>
        <lane id="z_10_2" index="2" speed="13.89" length="472.80" shape="998.40,986.40 998.40,513.60"/>
    </edge>
    <edge id="z_11" from="j_6" to="j_9" priority="-1">
        <lane id="z_11_0" index="0" speed="13.89" length="472.80" shape="992.00,486.40 992.00,13.60"/>
        <lane id="z_11_1" index="1" speed="13.89" length="472.80" shape="995.20,486.40 995.20,13.60"/>
        <lane id="z_11_2" index="2" speed="13.89" length="472.80" shape="998.40,486.40 998.40,13.60"/>
    </edge>
    <edge id="z_12" from="j_9" to="j_06" priority="-1">
        <lane id="z_12_0" index="0" speed="13.89" length="486.40" shape="992.00,-13.60 992.00,-500.00"/>
        <lane id="z_12_1" index="1" speed="13.89" length="486.40" shape="995.20,-13.60 995.20,-500.00"/>
        <lane id="z_12_2" index="2" speed="13.89" length="486.40" shape="998.40,-13.60 998.40,-500.00"/>
    </edge>
    <edge id="z_13" from="j_04" to="j_7" priority="-1">
        <lane id="z_13_0" index="0" speed="13.89" length="486.40" shape="8.00,-500.00 8.00,-13.60"/>
        <lane id="z_13_1" index="1" speed="13.89" length="486.40" shape="4.80,-500.00 4.80,-13.60"/>
        <lane id="z_13_2" index="2" speed="13.89" length="486.40" shape="1.60,-500.00 1.60,-13.60"/>
    </edge>
    <edge id="z_14" from="j_7" to="j_4" priority="-1">
        <lane id="z_14_0" index="0" speed="13.89" length="472.80" shape="8.00,13.60 8.00,486.40"/>
        <lane id="z_14_1" index="1" speed="13.89" length="472.80" shape="4.80,13.60 4.80,486.40"/>
        <lane id="z_14_2" index="2" speed="13.89" length="472.80" shape="1.60,13.60 1.60,486.40"/>
    </edge>
    <edge id="z_15" from="j_4" to="j_1" priority="-1">
        <lane id="z_15_0" index="0" speed="13.89" length="472.80" shape="8.00,513.60 8.00,986.40"/>
        <lane id="z_15_1" index="1" speed="13.89" length="472.80" shape="4.80,513.60 4.80,986.40"/>
        <lane id="z_15_2" index="2" speed="13.89" length="472.80" shape="1.60,513.60 1.60,986.40"/>
    </edge>
    <edge id="z_16" from="j_1" to="j_01" priority="-1">